
OS:Version,
  {3b330d8f-8864-42be-872a-1da439751af1}, !- Handle
  3.0.0;                                  !- Version Identifier

OS:Site,
  {26c1d3d2-1255-4c30-b0f3-21a67fc3b32f}, !- Handle
  Chula Vista Brown Field Naas,           !- Name
  32.58,                                  !- Latitude {deg}
  -116.98,                                !- Longitude {deg}
  -8,                                     !- Time Zone {hr}
  159,                                    !- Elevation {m}
  ;                                       !- Terrain

OS:YearDescription,
  {1eb312e3-1a3a-41c0-8008-a83f9aed5aa5}, !- Handle
  ,                                       !- Calendar Year
  Sunday;                                 !- Day of Week for Start Day

OS:ClimateZones,
  {6cba4891-c33d-4d02-b342-482c2a08e7da}, !- Handle
  ASHRAE,                                 !- Climate Zone Institution Name 1
  ANSI/ASHRAE Standard 169,               !- Climate Zone Document Name 1
  2006,                                   !- Climate Zone Document Year 1
  5B,                                     !- Climate Zone Value 1
  CEC,                                    !- Climate Zone Institution Name 2
  California Climate Zone Descriptions,   !- Climate Zone Document Name 2
  1995,                                   !- Climate Zone Document Year 2
  ;                                       !- Climate Zone Value 2

OS:Building,
  {b076c5c0-f5b7-4c88-bdfe-0bcfb02cb42d}, !- Handle
  Building 1,                             !- Name
  ,                                       !- Building Sector Type
  ,                                       !- North Axis {deg}
  ,                                       !- Nominal Floor to Floor Height {m}
  {977455ec-1f39-434d-94d0-318b10a7bb7e}, !- Space Type Name
  {b2f63aff-ace4-4ca8-a523-d0fbfb1c37a8}, !- Default Construction Set Name
  ;                                       !- Default Schedule Set Name

OS:Facility,
  {52a8a6f5-75de-4da1-98cc-8c43c7732d08}; !- Handle

OS:SimulationControl,
  {6288b4d9-3d6e-4844-a377-bdf35cca1d20}; !- Handle

OS:Sizing:Parameters,
  {ec33c53f-8052-4efe-a288-5628624904a9}, !- Handle
  1.25,                                   !- Heating Sizing Factor
  1.15;                                   !- Cooling Sizing Factor

OS:Timestep,
  {6bd56e10-a636-4da7-8f6a-24087008f420}, !- Handle
  6;                                      !- Number of Timesteps per Hour

OS:ShadowCalculation,
  {9d68280e-8f85-4a10-a104-0e0d3b7ddede}, !- Handle
  PolygonClipping,                        !- Shading Calculation Method
  ,                                       !- Shading Calculation Update Frequency Method
  20,                                     !- Shading Calculation Update Frequency
  15000,                                  !- Maximum Figures in Shadow Overlap Calculations
  ,                                       !- Polygon Clipping Algorithm
  512,                                    !- Pixel Counting Resolution
  ,                                       !- Sky Diffuse Modeling Algorithm
  No,                                     !- Output External Shading Calculation Results
  No,                                     !- Disable Self-Shading Within Shading Zone Groups
  No;                                     !- Disable Self-Shading From Shading Zone Groups to Other Zones

OS:HeatBalanceAlgorithm,
  {0f04f3f0-4d2a-462b-8b01-6686e49d0fce}, !- Handle
  ConductionTransferFunction,             !- Algorithm
  200;                                    !- Surface Temperature Upper Limit {C}

OS:RunPeriod,
  {db5fa026-4202-4ff2-be6b-698fc6ba62ea}, !- Handle
  Run Period 1,                           !- Name
  1,                                      !- Begin Month
  1,                                      !- Begin Day of Month
  12,                                     !- End Month
  31,                                     !- End Day of Month
  ,                                       !- Use Weather File Holidays and Special Days
  ,                                       !- Use Weather File Daylight Saving Period
  ,                                       !- Apply Weekend Holiday Rule
  ,                                       !- Use Weather File Rain Indicators
  ,                                       !- Use Weather File Snow Indicators
  ;                                       !- Number of Times Runperiod to be Repeated

OS:LifeCycleCost:Parameters,
  {97b1d350-b8fd-4fbb-928c-e1fc71b1eb75}, !- Handle
  ,                                       !- Analysis Type
  ,                                       !- Discounting Convention
  ,                                       !- Inflation Approach
  ,                                       !- Real Discount Rate
  ,                                       !- Nominal Discount Rate
  ,                                       !- Inflation
  ,                                       !- Base Date Month
  ,                                       !- Base Date Year
  ,                                       !- Service Date Month
  ,                                       !- Service Date Year
  ;                                       !- Length of Study Period in Years

OS:SizingPeriod:DesignDay,
  {e845a258-ed4f-4b7f-a2bf-f50633fb229d}, !- Handle
  Denver Centennial  Golden   N Ann Htg 99.6% Condns DB, !- Name
  -18.8,                                  !- Maximum Dry-Bulb Temperature {C}
  0,                                      !- Daily Dry-Bulb Temperature Range {deltaC}
  -18.8,                                  !- Humidity Indicating Conditions at Maximum Dry-Bulb
  81198,                                  !- Barometric Pressure {Pa}
  3,                                      !- Wind Speed {m/s}
  340,                                    !- Wind Direction {deg}
  0,                                      !- Sky Clearness
  0,                                      !- Rain Indicator
  0,                                      !- Snow Indicator
  21,                                     !- Day of Month
  12,                                     !- Month
  WinterDesignDay,                        !- Day Type
  0,                                      !- Daylight Saving Time Indicator
  Wetbulb,                                !- Humidity Indicating Type
  ,                                       !- Humidity Indicating Day Schedule Name
  DefaultMultipliers,                     !- Dry-Bulb Temperature Range Modifier Type
  ,                                       !- Dry-Bulb Temperature Range Modifier Schedule Name
  ASHRAEClearSky;                         !- Solar Model Indicator

OS:SizingPeriod:DesignDay,
  {ea4880f5-c8f8-43ba-b878-3e1af269ef16}, !- Handle
  Denver Centennial  Golden   N Ann Hum_n 99.6% Condns DP=>MCDB, !- Name
  -10.9,                                  !- Maximum Dry-Bulb Temperature {C}
  0,                                      !- Daily Dry-Bulb Temperature Range {deltaC}
  -21.6,                                  !- Humidity Indicating Conditions at Maximum Dry-Bulb
  81198,                                  !- Barometric Pressure {Pa}
  3,                                      !- Wind Speed {m/s}
  340,                                    !- Wind Direction {deg}
  0,                                      !- Sky Clearness
  0,                                      !- Rain Indicator
  0,                                      !- Snow Indicator
  21,                                     !- Day of Month
  12,                                     !- Month
  WinterDesignDay,                        !- Day Type
  0,                                      !- Daylight Saving Time Indicator
  Dewpoint,                               !- Humidity Indicating Type
  ,                                       !- Humidity Indicating Day Schedule Name
  DefaultMultipliers,                     !- Dry-Bulb Temperature Range Modifier Type
  ,                                       !- Dry-Bulb Temperature Range Modifier Schedule Name
  ASHRAEClearSky;                         !- Solar Model Indicator

OS:SizingPeriod:DesignDay,
  {03012973-2633-4112-83bb-5476531064bd}, !- Handle
  Denver Centennial  Golden   N Ann Htg Wind 99.6% Condns WS=>MCDB, !- Name
  3.9,                                    !- Maximum Dry-Bulb Temperature {C}
  0,                                      !- Daily Dry-Bulb Temperature Range {deltaC}
  3.9,                                    !- Humidity Indicating Conditions at Maximum Dry-Bulb
  81198,                                  !- Barometric Pressure {Pa}
  12.2,                                   !- Wind Speed {m/s}
  340,                                    !- Wind Direction {deg}
  0,                                      !- Sky Clearness
  0,                                      !- Rain Indicator
  0,                                      !- Snow Indicator
  21,                                     !- Day of Month
  12,                                     !- Month
  WinterDesignDay,                        !- Day Type
  0,                                      !- Daylight Saving Time Indicator
  Wetbulb,                                !- Humidity Indicating Type
  ,                                       !- Humidity Indicating Day Schedule Name
  DefaultMultipliers,                     !- Dry-Bulb Temperature Range Modifier Type
  ,                                       !- Dry-Bulb Temperature Range Modifier Schedule Name
  ASHRAEClearSky;                         !- Solar Model Indicator

OS:SizingPeriod:DesignDay,
  {e87ad8cb-fbbc-4d7d-aec8-b67e339593d0}, !- Handle
  Denver Centennial  Golden   N Ann Clg .4% Condns DB=>MWB, !- Name
  33,                                     !- Maximum Dry-Bulb Temperature {C}
  15.2,                                   !- Daily Dry-Bulb Temperature Range {deltaC}
  15.7,                                   !- Humidity Indicating Conditions at Maximum Dry-Bulb
  81198,                                  !- Barometric Pressure {Pa}
  4.9,                                    !- Wind Speed {m/s}
  0,                                      !- Wind Direction {deg}
  0,                                      !- Sky Clearness
  0,                                      !- Rain Indicator
  0,                                      !- Snow Indicator
  21,                                     !- Day of Month
  7,                                      !- Month
  SummerDesignDay,                        !- Day Type
  0,                                      !- Daylight Saving Time Indicator
  Wetbulb,                                !- Humidity Indicating Type
  ,                                       !- Humidity Indicating Day Schedule Name
  DefaultMultipliers,                     !- Dry-Bulb Temperature Range Modifier Type
  ,                                       !- Dry-Bulb Temperature Range Modifier Schedule Name
  ASHRAETau,                              !- Solar Model Indicator
  ,                                       !- Beam Solar Day Schedule Name
  ,                                       !- Diffuse Solar Day Schedule Name
  0.424,                                  !- ASHRAE Taub {dimensionless}
  2.025;                                  !- ASHRAE Taud {dimensionless}

OS:SizingPeriod:DesignDay,
  {13fda270-c200-4127-bb62-8e6d236a61e5}, !- Handle
  Denver Centennial  Golden   N Ann Clg .4% Condns WB=>MDB, !- Name
  27.3,                                   !- Maximum Dry-Bulb Temperature {C}
  15.2,                                   !- Daily Dry-Bulb Temperature Range {deltaC}
  18.4,                                   !- Humidity Indicating Conditions at Maximum Dry-Bulb
  81198,                                  !- Barometric Pressure {Pa}
  4.9,                                    !- Wind Speed {m/s}
  0,                                      !- Wind Direction {deg}
  0,                                      !- Sky Clearness
  0,                                      !- Rain Indicator
  0,                                      !- Snow Indicator
  21,                                     !- Day of Month
  7,                                      !- Month
  SummerDesignDay,                        !- Day Type
  0,                                      !- Daylight Saving Time Indicator
  Wetbulb,                                !- Humidity Indicating Type
  ,                                       !- Humidity Indicating Day Schedule Name
  DefaultMultipliers,                     !- Dry-Bulb Temperature Range Modifier Type
  ,                                       !- Dry-Bulb Temperature Range Modifier Schedule Name
  ASHRAETau,                              !- Solar Model Indicator
  ,                                       !- Beam Solar Day Schedule Name
  ,                                       !- Diffuse Solar Day Schedule Name
  0.424,                                  !- ASHRAE Taub {dimensionless}
  2.025;                                  !- ASHRAE Taud {dimensionless}

OS:SizingPeriod:DesignDay,
  {f560d712-5103-43dc-833f-e569d4510f2b}, !- Handle
  Denver Centennial  Golden   N Ann Clg .4% Condns DP=>MDB, !- Name
  20.2,                                   !- Maximum Dry-Bulb Temperature {C}
  15.2,                                   !- Daily Dry-Bulb Temperature Range {deltaC}
  16.1,                                   !- Humidity Indicating Conditions at Maximum Dry-Bulb
  81198,                                  !- Barometric Pressure {Pa}
  4.9,                                    !- Wind Speed {m/s}
  0,                                      !- Wind Direction {deg}
  0,                                      !- Sky Clearness
  0,                                      !- Rain Indicator
  0,                                      !- Snow Indicator
  21,                                     !- Day of Month
  7,                                      !- Month
  SummerDesignDay,                        !- Day Type
  0,                                      !- Daylight Saving Time Indicator
  Dewpoint,                               !- Humidity Indicating Type
  ,                                       !- Humidity Indicating Day Schedule Name
  DefaultMultipliers,                     !- Dry-Bulb Temperature Range Modifier Type
  ,                                       !- Dry-Bulb Temperature Range Modifier Schedule Name
  ASHRAETau,                              !- Solar Model Indicator
  ,                                       !- Beam Solar Day Schedule Name
  ,                                       !- Diffuse Solar Day Schedule Name
  0.424,                                  !- ASHRAE Taub {dimensionless}
  2.025;                                  !- ASHRAE Taud {dimensionless}

OS:SizingPeriod:DesignDay,
  {ff2d8e20-59fc-4942-ae86-f6281be7f413}, !- Handle
  Denver Centennial  Golden   N Ann Clg .4% Condns Enth=>MDB, !- Name
  27.3,                                   !- Maximum Dry-Bulb Temperature {C}
  15.2,                                   !- Daily Dry-Bulb Temperature Range {deltaC}
  59700,                                  !- Humidity Indicating Conditions at Maximum Dry-Bulb
  81198,                                  !- Barometric Pressure {Pa}
  4.9,                                    !- Wind Speed {m/s}
  0,                                      !- Wind Direction {deg}
  0,                                      !- Sky Clearness
  0,                                      !- Rain Indicator
  0,                                      !- Snow Indicator
  21,                                     !- Day of Month
  7,                                      !- Month
  SummerDesignDay,                        !- Day Type
  0,                                      !- Daylight Saving Time Indicator
  Enthalpy,                               !- Humidity Indicating Type
  ,                                       !- Humidity Indicating Day Schedule Name
  DefaultMultipliers,                     !- Dry-Bulb Temperature Range Modifier Type
  ,                                       !- Dry-Bulb Temperature Range Modifier Schedule Name
  ASHRAETau,                              !- Solar Model Indicator
  ,                                       !- Beam Solar Day Schedule Name
  ,                                       !- Diffuse Solar Day Schedule Name
  0.424,                                  !- ASHRAE Taub {dimensionless}
  2.025;                                  !- ASHRAE Taud {dimensionless}

OS:DefaultConstructionSet,
  {b2f63aff-ace4-4ca8-a523-d0fbfb1c37a8}, !- Handle
  90.1-2013 - PriSchl - ASHRAE 169-2006-5B, !- Name
  {7278cfc5-601b-4ced-a602-8396a136e0ee}, !- Default Exterior Surface Constructions Name
  {fc08766f-d7b6-43bc-b80d-57699f64262d}, !- Default Interior Surface Constructions Name
  {339e54d9-8be8-407a-9562-9e7df4adb6ea}, !- Default Ground Contact Surface Constructions Name
  {24427b4c-54f8-4f02-b6f7-7b073f1c3385}, !- Default Exterior SubSurface Constructions Name
  {6ee51124-657e-4561-859d-04970ad8f8d4}, !- Default Interior SubSurface Constructions Name
  {bf158cde-39b2-4bb8-80f1-ae59ae51a36d}, !- Interior Partition Construction Name
  ,                                       !- Space Shading Construction Name
  ,                                       !- Building Shading Construction Name
  ,                                       !- Site Shading Construction Name
  ;                                       !- Adiabatic Surface Construction Name

OS:DefaultSurfaceConstructions,
  {7278cfc5-601b-4ced-a602-8396a136e0ee}, !- Handle
  Default Surface Constructions 832,      !- Name
  {25edfd68-ef9b-443d-af55-f26619314c81}, !- Floor Construction Name
  {5f6b6065-cb27-4368-98ed-3e0b4a8cce30}, !- Wall Construction Name
  {b8e5d7ba-4d90-4537-a480-250aa59001cc}; !- Roof Ceiling Construction Name

OS:DefaultSurfaceConstructions,
  {fc08766f-d7b6-43bc-b80d-57699f64262d}, !- Handle
  Default Surface Constructions 833,      !- Name
  {f0ef9157-b345-4fc6-bcbc-977f57390fff}, !- Floor Construction Name
  {a4d5b04f-bd95-4cae-a68b-039caaef9924}, !- Wall Construction Name
  {935b498d-e698-44bf-9d76-c900f12301c4}; !- Roof Ceiling Construction Name

OS:DefaultSurfaceConstructions,
  {339e54d9-8be8-407a-9562-9e7df4adb6ea}, !- Handle
  Default Surface Constructions 834,      !- Name
  {e2bb2151-eb53-4883-abde-d156a1cc9ba6}, !- Floor Construction Name
  {c75456d5-23a7-41db-be0b-df0f8029a888}, !- Wall Construction Name
  ;                                       !- Roof Ceiling Construction Name

OS:DefaultSubSurfaceConstructions,
  {24427b4c-54f8-4f02-b6f7-7b073f1c3385}, !- Handle
  Default Sub Surface Constructions 555,  !- Name
  {11f550f1-95f0-4367-b623-45db578a97b0}, !- Fixed Window Construction Name
  {11f550f1-95f0-4367-b623-45db578a97b0}, !- Operable Window Construction Name
  {42095f91-1d9d-4602-86a7-922935bebe70}, !- Door Construction Name
  {2d1dbbc3-2107-4b0a-b9f0-f8c58c2676b1}, !- Glass Door Construction Name
  {2ad61b6d-f67c-4f9e-bddc-b9b9192ab899}, !- Overhead Door Construction Name
  {953c54d0-254d-4f78-a665-e8f0ac7e7c16}, !- Skylight Construction Name
  {22493ec2-0ea5-4dca-81cb-cbed0ad51c0f}, !- Tubular Daylight Dome Construction Name
  {22493ec2-0ea5-4dca-81cb-cbed0ad51c0f}; !- Tubular Daylight Diffuser Construction Name

OS:DefaultSubSurfaceConstructions,
  {6ee51124-657e-4561-859d-04970ad8f8d4}, !- Handle
  Default Sub Surface Constructions 556,  !- Name
  {22493ec2-0ea5-4dca-81cb-cbed0ad51c0f}, !- Fixed Window Construction Name
  {22493ec2-0ea5-4dca-81cb-cbed0ad51c0f}, !- Operable Window Construction Name
  {49e14ac8-90db-45a6-a5fb-efea3535c8bf}, !- Door Construction Name
  ,                                       !- Glass Door Construction Name
  ,                                       !- Overhead Door Construction Name
  ,                                       !- Skylight Construction Name
  ,                                       !- Tubular Daylight Dome Construction Name
  ;                                       !- Tubular Daylight Diffuser Construction Name

OS:Construction,
  {bf158cde-39b2-4bb8-80f1-ae59ae51a36d}, !- Handle
  Typical Interior Partition,             !- Name
  {60eb06ce-4b0e-46d7-89cc-f2d267dcbf79}, !- Surface Rendering Name
  {ac2b1c85-60f1-4e67-89d3-95cad31bcd66}; !- Layer 1

OS:StandardsInformation:Construction,
  {a9cbfbdd-d2da-460c-90eb-8eb3cc104ebb}, !- Handle
  {bf158cde-39b2-4bb8-80f1-ae59ae51a36d}, !- Construction Name
  InteriorPartition,                      !- Intended Surface Type
  ;                                       !- Standards Construction Type

OS:Construction,
  {25edfd68-ef9b-443d-af55-f26619314c81}, !- Handle
  Typical Insulated Exterior Mass Floor R-17.54 52, !- Name
  {b399d1cd-938d-4658-b178-fe83607a7405}, !- Surface Rendering Name
  {aeec235d-be33-47c7-85fa-fbcae8ddcceb}, !- Layer 1
  {640536d0-4def-456b-8816-daab19af98ad}, !- Layer 2
  {629141c1-d89d-42e1-b8a1-f6f02538d554}; !- Layer 3

OS:StandardsInformation:Construction,
  {67c0a6ca-c054-44bb-8275-f1f17113b3c3}, !- Handle
  {25edfd68-ef9b-443d-af55-f26619314c81}, !- Construction Name
  ExteriorFloor,                          !- Intended Surface Type
  Mass;                                   !- Standards Construction Type

OS:Construction,
  {5f6b6065-cb27-4368-98ed-3e0b4a8cce30}, !- Handle
  Typical Insulated Steel Framed Exterior Wall R-18.18 16, !- Name
  {964601be-75c8-400d-adcd-b89e52c26546}, !- Surface Rendering Name
  {e26f0602-19f9-4967-b153-c475d01f50ce}, !- Layer 1
  {3975ddcb-e7b7-45c8-96b2-8990f391def3}, !- Layer 2
  {bbc50cf2-8f80-4f44-9bb7-849b0185c057}, !- Layer 3
  {3975ddcb-e7b7-45c8-96b2-8990f391def3}; !- Layer 4

OS:StandardsInformation:Construction,
  {7af86325-db46-4394-9a57-625d9008ded2}, !- Handle
  {5f6b6065-cb27-4368-98ed-3e0b4a8cce30}, !- Construction Name
  ExteriorWall,                           !- Intended Surface Type
  SteelFramed;                            !- Standards Construction Type

OS:Construction,
  {b8e5d7ba-4d90-4537-a480-250aa59001cc}, !- Handle
  Typical IEAD Roof R-31.25 92,           !- Name
  {00d53435-6479-4511-87df-9e897b1f77de}, !- Surface Rendering Name
  {08ad8d8d-9964-4ccd-9a81-2b6d49d13e6a}, !- Layer 1
  {28fbb35b-28b2-45ed-bfdb-c1aa4305ae56}, !- Layer 2
  {77a934d6-a50f-42ce-84f1-c82e465284e1}; !- Layer 3

OS:StandardsInformation:Construction,
  {01e85972-14dc-4264-8edf-712a8a85f32b}, !- Handle
  {b8e5d7ba-4d90-4537-a480-250aa59001cc}, !- Construction Name
  ExteriorRoof,                           !- Intended Surface Type
  IEAD;                                   !- Standards Construction Type

OS:Construction,
  {f0ef9157-b345-4fc6-bcbc-977f57390fff}, !- Handle
  Typical Interior Floor,                 !- Name
  {4c04e053-41e6-4e45-a69e-2e10312e2dae}, !- Surface Rendering Name
  {8469a3ec-645c-4919-8b4e-92a4c6cf1e44}, !- Layer 1
  {71acd694-8055-4bcc-adca-62a66240b042}; !- Layer 2

OS:StandardsInformation:Construction,
  {ac313399-05a1-49be-9c4d-0f3f5161d7d6}, !- Handle
  {f0ef9157-b345-4fc6-bcbc-977f57390fff}, !- Construction Name
  InteriorFloor,                          !- Intended Surface Type
  ;                                       !- Standards Construction Type

OS:Construction,
  {a4d5b04f-bd95-4cae-a68b-039caaef9924}, !- Handle
  Typical Interior Wall,                  !- Name
  {0f9afee6-805b-4ece-8746-b1839bbc6ea3}, !- Surface Rendering Name
  {05201000-4162-4212-b6ba-ee76e4eabb63}, !- Layer 1
  {05201000-4162-4212-b6ba-ee76e4eabb63}; !- Layer 2

OS:StandardsInformation:Construction,
  {c0f991f2-4e75-4932-bdb8-d261c94c3910}, !- Handle
  {a4d5b04f-bd95-4cae-a68b-039caaef9924}, !- Construction Name
  InteriorWall,                           !- Intended Surface Type
  ;                                       !- Standards Construction Type

OS:Construction,
  {935b498d-e698-44bf-9d76-c900f12301c4}, !- Handle
  Typical Interior Ceiling,               !- Name
  {4364de7e-7d24-45e6-baf0-eaff2dec9899}, !- Surface Rendering Name
  {71acd694-8055-4bcc-adca-62a66240b042}, !- Layer 1
  {8469a3ec-645c-4919-8b4e-92a4c6cf1e44}; !- Layer 2

OS:StandardsInformation:Construction,
  {fec06971-e98d-46e3-a06c-d1d478681758}, !- Handle
  {935b498d-e698-44bf-9d76-c900f12301c4}, !- Construction Name
  InteriorCeiling,                        !- Intended Surface Type
  ;                                       !- Standards Construction Type

OS:Construction,
  {e2bb2151-eb53-4883-abde-d156a1cc9ba6}, !- Handle
  Typical Insulated Carpeted 8in Slab Floor, !- Name
  {6811e3ed-a404-4682-9f86-86cf899da406}, !- Surface Rendering Name
  {701f9761-fd03-46af-8a0c-010f8259e35f}, !- Layer 1
  {629141c1-d89d-42e1-b8a1-f6f02538d554}; !- Layer 2

OS:StandardsInformation:Construction,
  {020236ba-cb43-4bea-a20d-41bb91ebe262}, !- Handle
  {e2bb2151-eb53-4883-abde-d156a1cc9ba6}, !- Construction Name
  GroundContactFloor,                     !- Intended Surface Type
  Mass;                                   !- Standards Construction Type

OS:Construction,
  {c75456d5-23a7-41db-be0b-df0f8029a888}, !- Handle
  Typical Insulated Basement Mass Wall,   !- Name
  {c6a4c25b-a100-4c24-a356-fe4adacd7d26}, !- Surface Rendering Name
  {c876c4af-0fc0-45ad-9bf0-805d348bd3cc}; !- Layer 1

OS:StandardsInformation:Construction,
  {1a6b1b4b-5c23-463e-ae1a-cc83c3f7a0af}, !- Handle
  {c75456d5-23a7-41db-be0b-df0f8029a888}, !- Construction Name
  GroundContactWall,                      !- Intended Surface Type
  Mass;                                   !- Standards Construction Type

OS:Construction,
  {11f550f1-95f0-4367-b623-45db578a97b0}, !- Handle
  U 0.48 SHGC 0.40 Dbl Ref-D Clr 6mm/13mm, !- Name
  {1a58f607-287f-4c12-9512-75bc56d4b1fb}, !- Surface Rendering Name
  {4514ca56-596e-4ca6-8aa4-c33f9747c374}, !- Layer 1
  {629be97e-1508-407f-ad42-a76a15eafe2e}, !- Layer 2
  {7be47a38-a7c1-441b-9314-4f17f5d8b1be}; !- Layer 3

OS:StandardsInformation:Construction,
  {8267bfba-98f6-4491-904c-125cd9f1abce}, !- Handle
  {11f550f1-95f0-4367-b623-45db578a97b0}, !- Construction Name
  ExteriorWindow,                         !- Intended Surface Type
  Metal framing (all other),              !- Standards Construction Type
  ,                                       !- Perturbable Layer
  ,                                       !- Perturbable Layer Type
  ,                                       !- Other Perturbable Layer Type
  ,                                       !- Construction Standard
  ,                                       !- Construction Standard Source
  ,                                       !- Fenestration Type
  ,                                       !- Fenestration Assembly Context
  ,                                       !- Fenestration Number of Panes
  Metal Framing;                          !- Fenestration Frame Type

OS:Construction,
  {42095f91-1d9d-4602-86a7-922935bebe70}, !- Handle
  Typical Insulated Metal Door R-2.0 148, !- Name
  {b79e8543-5ff8-401b-9610-ad5f1cbfd574}, !- Surface Rendering Name
  {8a7c5f9b-510d-439e-8f9d-ca036194ed54}, !- Layer 1
  {9a519113-3a61-4576-a88b-2b9a49134faa}; !- Layer 2

OS:StandardsInformation:Construction,
  {bd189983-9d85-4f59-944c-426902fe1ec0}, !- Handle
  {42095f91-1d9d-4602-86a7-922935bebe70}, !- Construction Name
  ExteriorDoor,                           !- Intended Surface Type
  ;                                       !- Standards Construction Type

OS:Construction,
  {2d1dbbc3-2107-4b0a-b9f0-f8c58c2676b1}, !- Handle
  U 0.44 SHGC 0.26 Dbl Ref-B-H Clr 6mm/13mm Air, !- Name
  {612663fd-5a3f-4ac6-9dc3-dfabd0548e29}, !- Surface Rendering Name
  {702f4ff0-fb44-44c9-b678-a93fdfd96ae2}, !- Layer 1
  {629be97e-1508-407f-ad42-a76a15eafe2e}, !- Layer 2
  {7be47a38-a7c1-441b-9314-4f17f5d8b1be}; !- Layer 3

OS:StandardsInformation:Construction,
  {9465a725-c7eb-43a7-9227-f1df56d9bf6f}, !- Handle
  {2d1dbbc3-2107-4b0a-b9f0-f8c58c2676b1}, !- Construction Name
  ExteriorWindow,                         !- Intended Surface Type
  Metal framing (all other),              !- Standards Construction Type
  ,                                       !- Perturbable Layer
  ,                                       !- Perturbable Layer Type
  ,                                       !- Other Perturbable Layer Type
  ,                                       !- Construction Standard
  ,                                       !- Construction Standard Source
  ,                                       !- Fenestration Type
  ,                                       !- Fenestration Assembly Context
  ,                                       !- Fenestration Number of Panes
  Metal Framing;                          !- Fenestration Frame Type

OS:Construction,
  {2ad61b6d-f67c-4f9e-bddc-b9b9192ab899}, !- Handle
  Typical Overhead Door,                  !- Name
  {594fe3b6-1049-44db-9942-03b1c5aefcf1}, !- Surface Rendering Name
  {494ce6a0-f480-473e-a464-4519502d187e}; !- Layer 1

OS:StandardsInformation:Construction,
  {e45f421f-9b21-4094-b0b9-75a2ad69ffe9}, !- Handle
  {2ad61b6d-f67c-4f9e-bddc-b9b9192ab899}, !- Construction Name
  ExteriorDoor,                           !- Intended Surface Type
  RollUp;                                 !- Standards Construction Type

OS:Construction,
  {953c54d0-254d-4f78-a665-e8f0ac7e7c16}, !- Handle
  Window_U_0.50_SHGC_0.40_Skylight_Frame_Width_0.430_in, !- Name
  {85762fe8-7198-431d-b4da-5af852b24943}, !- Surface Rendering Name
  {c0929ae9-af4e-4029-beef-8c486034d295}, !- Layer 1
  {c1123136-3ec6-4c6a-9ce8-f2f3cf27d03a}, !- Layer 2
  {350da65a-44fc-4fdf-ae71-0693398aa910}; !- Layer 3

OS:StandardsInformation:Construction,
  {d6d3bd0e-6596-4858-b375-fc448bf1cfed}, !- Handle
  {953c54d0-254d-4f78-a665-e8f0ac7e7c16}, !- Construction Name
  Skylight,                               !- Intended Surface Type
  ;                                       !- Standards Construction Type

OS:Construction,
  {22493ec2-0ea5-4dca-81cb-cbed0ad51c0f}, !- Handle
  Typical Interior Window,                !- Name
  {26d27791-19f2-4f1c-852c-46222bb30fcb}, !- Surface Rendering Name
  {9bac815e-46d9-45e1-a9a6-cc5e7ced66a2}; !- Layer 1

OS:StandardsInformation:Construction,
  {5070e3dd-79fb-44d0-8a27-c808c34f5e8a}, !- Handle